[General]
cmdenv-express-mode = true
cmdenv-autoflush = true
cmdenv-status-frequency = 10000000s

#tkenv-default-config = debug
#tkenv-default-run = 1
tkenv-image-path = bitmaps
ned-path = .

#network = org.car2x.veins.nodes.Scenario
network = src.modules.scenario.FranciscoScenario

##########################################################
#            Simulation parameters                       #
##########################################################
debug-on-errors = true
print-undisposed = false

sim-time-limit = 6000s

#**.scalar-recording = false
#**.vector-recording = false

**.debug = false
**.coreDebug = false

*.playgroundSizeX = 5000m
*.playgroundSizeY = 5000m
*.playgroundSizeZ = 50m


##########################################################
# Annotation parameters                                  #
##########################################################
*.annotations.draw = false

##########################################################
# Obstacle parameters                                    #
##########################################################
*.obstacles.debug = false
*.obstacles.obstacles = xmldoc("sanfrancisco.obstacles.xml")

### FOR RAV OBSTACLE MODEL ###
#*.obstacles.streetAngularDifferenceThreshold = 20
#*.obstacles.distanceFromVehicleToStreetProjectionThreshold = 20
#*.obstacles.distanceOfVehicleFromJunctionThreshold = 20

##########################################################
#            WorldUtility parameters                     #
##########################################################
*.world.useTorus = false
*.world.use2D = false

##########################################################
#            TraCIScenarioManager parameters             #
##########################################################
*.manager.updateInterval = 0.1s
*.manager.host = "localhost"
*.manager.port = 9999
*.manager.moduleType = "org.car2x.veins.nodes.Car"
*.manager.moduleName = "node"
*.manager.moduleDisplayString = ""
*.manager.autoShutdown = true
*.manager.margin = 25
*.manager.launchConfig = xmldoc("sanfrancisco.launchd.xml")
*.manager.numVehicles = 200


##########################################################
#                 Road Map Manager                       #
##########################################################

### USED FOR RAV OBSTACLE MODEL ###
#*.roadmapmgr.networkXmlFile = xmldoc("sanfrancisco.net.xml", "/net")
#*.roadmapmgr.networkXmlFile = xmldoc("sanfrancisco.net.xml")

##########################################################
#            11p specific parameters                     #
#                                                        #
#                    NIC-Settings                        #
##########################################################
*.connectionManager.pMax = 20mW
*.connectionManager.sat = -89dBm
*.connectionManager.alpha = 2.0
*.connectionManager.carrierFrequency = 5.890e9 Hz
*.connectionManager.sendDirect = true

*.**.nic.mac1609_4.useServiceChannel = false

*.**.nic.mac1609_4.txPower = 20mW
*.**.nic.mac1609_4.bitrate = 18Mbps

*.**.nic.phy80211p.sensitivity = -89dBm
*.**.nic.phy80211p.maxTXPower = 10mW
*.**.nic.phy80211p.useThermalNoise = true
*.**.nic.phy80211p.thermalNoise = -110dBm
*.**.nic.phy80211p.decider = xmldoc("config.xml")
*.**.nic.phy80211p.analogueModels = xmldoc("config.xml")
*.**.nic.phy80211p.usePropagationDelay = true

##########################################################
#                    WaveAppLayer                        #
##########################################################
*.node[*].applType = "TraCIDemo11p"
*.node[*].appl.debug = false
*.node[*].appl.headerLength = 256 bit
*.node[*].appl.sendBeacons = true
*.node[*].appl.dataOnSch = false
*.node[*].appl.sendData = true
*.node[*].appl.beaconInterval = 1s
*.node[*].appl.beaconPriority = 3
*.node[*].appl.dataPriority = 2
*.node[*].appl.maxOffset = 0.005s



##########################################################
#                      Mobility                          #
##########################################################
*.node[*].veinsmobilityType = "org.car2x.veins.modules.mobility.traci.TraCIMobility"
*.node[*].mobilityType = "TraCIMobility"
*.node[*].mobilityType.debug = true
*.node[*].veinsmobilityType.debug = true
*.node[*].veinsmobility.x = 0
*.node[*].veinsmobility.y = 0
*.node[*].veinsmobility.z = 1.895
*.node[*].veinsmobility.accidentCount = 0
*.node[10].veinsmobility.accidentCount = 1
*.node[10].veinsmobility.accidentStart = 10s
*.node[10].veinsmobility.accidentDuration = 30s




###########################################################
#                  Francisco Configuration                #
###########################################################

[Config NoDebug]
**.debug = false
**.coreDebug = false
*.annotations.draw = false

[Config Common]
*.manager.moduleType = "src.modules.nodes.Car"

[Config Stats]

*.node[*].veinsmobility.posx.result-recording-modes = -       # try removing superflous stats

#*.node[*].appl.receivedWarning.result-recording-modes = count,+vector
*.node[*].appl.warningReceivedSignal.scalar-recording = true
*.node[*].appl.warningReceivedSignal.vector-recording = true

*.node[*].appl.beaconReceivedSignal.scalar-recording = true
*.node[*].appl.beaconReceivedSignal.vector-recording = true

*.node[*].appl.messageReceivedSignal.scalar-recording = true
*.node[*].appl.messageReceivedSignal.vector-recording = true

*.node[*].appl.newWarningReceivedSignal.scalar-recording = true
*.node[*].appl.newWarningReceivedSignal.vector-recording = true

*.stats.allBeaconsReceivedSignal.scalar-recording = true
*.stats.allBeaconsReceivedSignal.vector-recording = true

*.stats.allNewWarningsReceivedSignal.scalar-recording = true
*.stats.allNewWarningsReceivedSignal.vector-recording = true

*.stats.allWarningsReceivedSignal.scalar-recording = true
*.stats.allWarningsReceivedSignal.vector-recording = true

*.stats.allMessagesReceivedSignal.scalar-recording = true
*.stats.allMessagesReceivedSignal.vector-recording = true

*.stats.accidentStartTimeSignal.scalar-recording = true
*.stats.accidentStartTimeSignal.vector-recording = true

*.stats.percentOfInformedVehicles.scalar-recording = true
*.stats.percentOfInformedVehicles.vector-recording = true

#[Config Esbr]
#extends = NoDebug, Common, Stats
#description = "Esbr based dissemination"
#*.node[*].applType = "EmdrApplLayer"
#*.node[*].appl.senderReceiverDistanceTheshold = 20
#*.node[*].appl.sendWarningInterval = 2
#*.node[*].appl.neighborLifetimeThreshold = 2
#*.node[*].appl.hostToJunctionDistanceThreshold = 20

#[Config Emdr]
#extends = NoDebug, Common, Stats
#description = "Emdr based dissemination"
#*.node[*].applType = "EmdrApplLayer"
#*.node[*].appl.senderReceiverDistanceTheshold = 20
#*.node[*].appl.sendWarningInterval = 2
#*.node[*].appl.neighborLifetimeThreshold = 2
#*.node[*].appl.hostToJunctionDistanceThreshold = 20

#[Config Njl]
#extends = NoDebug, Common, Stats
#description = "Njl based dissemination"
#*.node[*].applType = "NjlApplLayer"
#*.node[*].appl.distanceIfInJunctionTheshold = 20
#*.node[*].appl.rebroadcastWaitTime = 2
#*.node[*].appl.neighborLifetimeThreshold = 2

#[Config Nsf]
#extends = NoDebug, Common, Stats
#description = "Nsf based dissemination"
#*.node[*].applType = "NsfApplLayer"
#*.node[*].appl.neighborLifetimeThreshold = 2

#[Config Counter]
#extends = NoDebug, Common, Stats
#description = "Counter based dissemination"
#*.node[*].applType = "CounterApplLayer"
#*.node[*].appl.counterThreshold = 3
#*.node[*].appl.sendBeacons = false

[Config Distance]
extends = NoDebug, Common, Stats
description = "Distance based dissemination"
*.node[*].applType = "DistanceApplLayer"
*.node[*].appl.distanceThreshold = 30
*.node[*].appl.sendBeacons = false


[Config Flooding]
extends = NoDebug, Common, Stats
description = "Flooding based dissemination"
*.node[*].applType = "FloodingApplLayer"
*.node[*].appl.sendBeacons = false


[Config Debug]
description = "(very slow!) draw and print additional debug information"
**.debug = true
**.coreDebug = true
*.annotations.draw = true



