<?xml version="1.0" encoding="UTF-8"?>

<!-- generated on Wed Jul  9 13:06:42 2014 by SUMO netconvert Version 0.20.0
<?xml version="1.0" encoding="UTF-8"?>

<configuration xmlns:xsi="http://www.w3.org/2001/XMLSchema-instance" xsi:noNamespaceSchemaLocation="http://sumo-sim.org/xsd/netconvertConfiguration.xsd">

    <input>
        <osm-files value="valencia.osm"/>
    </input>

    <output>
        <output-file value="valencia.net.xml"/>
    </output>

    <projection>
        <proj.utm value="true"/>
    </projection>

    <ramp_guessing>
        <ramps.guess value="true"/>
    </ramp_guessing>

    <edge_removal>
        <remove-edges.by-vclass value="hov,taxi,bus,delivery,transport,lightrail,cityrail,rail_slow,rail_fast,bicycle,pedestrian"/>
        <remove-edges.isolated value="true"/>
    </edge_removal>

    <processing>
        <junctions.join value="true"/>
    </processing>

    <report>
        <log value="netconvert.log"/>
    </report>

</configuration>
-->

<net version="0.13" xmlns:xsi="http://www.w3.org/2001/XMLSchema-instance" xsi:noNamespaceSchemaLocation="http://sumo-sim.org/xsd/net_file.xsd">

    <location netOffset="-725267.57,-4371047.68" convBoundary="0.00,0.00,2536.50,1969.54" origBoundary="-0.423669,39.451942,-0.338937,39.481413" projParameter="+proj=utm +zone=30 +ellps=WGS84 +datum=WGS84 +units=m +no_defs"/>

    <edge id=":10249522#1-AddedOffRampNode_0" function="internal">
        <lane id=":10249522#1-AddedOffRampNode_0_0" index="0" speed="13.89" length="3.75" shape="1701.51,1481.37 1705.88,1480.29"/>
        <lane id=":10249522#1-AddedOffRampNode_0_1" index="1" speed="13.89" length="3.75" shape="1701.51,1481.37 1704.02,1483.02"/>
    </edge>
    <edge id=":103753700_0" function="internal">
        <lane id=":103753700_0_0" index="0" speed="13.89" length="0.80" shape="1357.06,1255.15 1357.63,1254.58"/>
    </edge>
    <edge id=":103753701_0" function="internal">
        <lane id=":103753701_0_0" index="0" speed="27.78" length="5.95" shape="1357.47,1255.04 1362.64,1253.58"/>
        <lane id=":103753701_0_1" index="1" speed="27.78" length="5.95" shape="1359.62,1257.55 1365.62,1254.99"/>
    </edge>
    <edge id=":103753701_2" function="internal">
        <lane id=":103753701_2_0" index="0" speed="20.83" length="0.51" shape="1359.19,1251.96 1359.65,1252.18"/>
    </edge>
    <edge id=":10377690#5-AddedOnRampNode_0" function="internal">
        <lane id=":10377690#5-AddedOnRampNode_0_0" index="0" speed="27.78" length="3.00" shape="2113.68,905.36 2116.52,904.40"/>
        <lane id=":10377690#5-AddedOnRampNode_0_1" index="1" speed="27.78" length="3.00" shape="2114.78,908.47 2117.62,907.51"/>
    </edge>
    <edge id=":10380376#0-AddedOnRampNode_0" function="internal">
        <lane id=":10380376#0-AddedOnRampNode_0_0" index="0" speed="27.78" length="2.99" shape="2006.37,565.36 2003.97,567.15"/>
        <lane id=":10380376#0-AddedOnRampNode_0_1" index="1" speed="27.78" length="2.99" shape="2004.40,562.72 2001.95,564.41"/>
    </edge>
    <edge id=":1083021630_0" function="internal">
        <lane id=":1083021630_0_0" index="0" speed="8.33" length="0.10" shape="402.20,1316.17 402.20,1316.17"/>
    </edge>
    <edge id=":108324053_0" function="internal">
        <lane id=":108324053_0_0" index="0" speed="27.78" length="6.34" shape="1636.95,513.87 1631.42,510.77"/>
        <lane id=":108324053_0_1" index="1" speed="27.78" length="6.34" shape="1638.56,511.00 1633.03,507.89"/>
    </edge>
    <edge id=":108324053_2" function="internal">
        <lane id=":108324053_2_0" index="0" speed="20.83" length="5.04" shape="1638.56,511.00 1637.46,510.15 1636.91,509.16 1636.91,508.03 1637.46,506.76"/>
    </edge>
    <edge id=":108324053_3" function="internal">
        <lane id=":108324053_3_0" index="0" speed="20.83" length="5.01" shape="1632.59,515.00 1633.10,513.72 1633.07,512.59 1632.51,511.60 1631.42,510.77"/>
    </edge>
    <edge id=":108324053_4" function="internal">
        <lane id=":108324053_4_0" index="0" speed="13.89" length="9.57" shape="1632.59,515.00 1637.46,506.76"/>
    </edge>
    <edge id=":108324188_0" function="internal">
        <lane id=":108324188_0_0" index="0" speed="25.00" length="5.08" shape="1534.66,460.40 1533.34,459.88 1532.18,459.89 1531.17,460.42 1530.31,461.47"/>
    </edge>
    <edge id=":108324188_1" function="internal">
        <lane id=":108324188_1_0" index="0" speed="27.78" length="6.15" shape="1536.27,457.52 1530.93,454.37"/>
        <lane id=":108324188_1_1" index="1" speed="27.78" length="6.15" shape="1537.88,454.64 1532.62,451.54"/>
    </edge>
    <edge id=":108324467_0" function="internal">
        <lane id=":108324467_0_0" index="0" speed="20.83" length="5.49" shape="1244.59,490.64 1243.17,491.36 1242.50,492.30 1242.57,493.45 1243.39,494.82"/>
    </edge>
    <edge id=":108324467_1" function="internal">
        <lane id=":108324467_1_0" index="0" speed="20.83" length="8.27" shape="1244.59,490.64 1236.58,493.10"/>
        <lane id=":108324467_1_1" index="1" speed="20.83" length="8.27" shape="1243.52,487.52 1235.72,489.92"/>
    </edge>
    <edge id=":108324467_3" function="internal">
        <lane id=":108324467_3_0" index="0" speed="13.89" length="10.72" shape="1237.47,485.91 1238.94,488.62 1240.13,490.56 1241.47,492.41 1243.39,494.82"/>
    </edge>
    <edge id=":108324467_4" function="internal">
        <lane id=":108324467_4_0" index="0" speed="13.89" length="5.29" shape="1237.47,485.91 1237.98,487.32 1237.85,488.46 1237.10,489.33 1235.72,489.92"/>
    </edge>
    <edge id=":108324683_0" function="internal">
        <lane id=":108324683_0_0" index="0" speed="18.06" length="5.01" shape="1358.18,532.98 1359.44,533.51 1360.57,533.51 1361.57,532.97 1362.44,531.90"/>
    </edge>
    <edge id=":108324683_1" function="internal">
        <lane id=":108324683_1_0" index="0" speed="13.89" length="6.22" shape="1358.18,532.98 1363.53,536.15"/>
    </edge>
    <edge id=":108324683_2" function="internal">
        <lane id=":108324683_2_0" index="0" speed="22.22" length="6.22" shape="1359.29,537.27 1362.44,531.90"/>
    </edge>
    <edge id=":108324683_3" function="internal">
        <lane id=":108324683_3_0" index="0" speed="18.06" length="5.01" shape="1359.29,537.27 1360.13,536.19 1361.13,535.65 1362.26,535.63 1363.53,536.15"/>
    </edge>
    <edge id=":108324724_0" function="internal">
        <lane id=":108324724_0_0" index="0" speed="18.06" length="5.02" shape="1456.28,586.62 1455.76,587.90 1455.77,589.03 1456.32,590.02 1457.42,590.86"/>
    </edge>
    <edge id=":108324724_1" function="internal">
        <lane id=":108324724_1_0" index="0" speed="22.22" length="6.23" shape="1456.28,586.62 1453.16,592.01"/>
    </edge>
    <edge id=":108324724_2" function="internal">
        <lane id=":108324724_2_0" index="0" speed="13.89" length="6.22" shape="1452.02,587.76 1457.42,590.86"/>
    </edge>
    <edge id=":108324724_3" function="internal">
        <lane id=":108324724_3_0" index="0" speed="18.06" length="5.01" shape="1452.02,587.76 1453.09,588.61 1453.64,589.60 1453.66,590.74 1453.16,592.01"/>
    </edge>
    <edge id=":108324774_0" function="internal">
        <lane id=":108324774_0_0" index="0" speed="13.89" length="5.03" shape="1554.22,645.52 1555.51,646.02 1556.65,645.99 1557.64,645.44 1558.48,644.35"/>
    </edge>
    <edge id=":108324774_1" function="internal">
        <lane id=":108324774_1_0" index="0" speed="13.89" length="6.22" shape="1554.22,645.52 1559.64,648.58"/>
    </edge>
    <edge id=":108324774_2" function="internal">
        <lane id=":108324774_2_0" index="0" speed="13.89" length="6.22" shape="1555.38,649.75 1558.48,644.35"/>
    </edge>
    <edge id=":108324774_3" function="internal">
        <lane id=":108324774_3_0" index="0" speed="13.89" length="5.03" shape="1555.38,649.75 1556.23,648.66 1557.22,648.11 1558.36,648.08 1559.64,648.58"/>
    </edge>
    <edge id=":108324896_0" function="internal">
        <lane id=":108324896_0_0" index="0" speed="13.89" length="1.34" shape="1282.13,487.37 1282.47,487.31 1282.80,487.33 1283.12,487.41 1283.42,487.57"/>
    </edge>
    <edge id=":108325013_0" function="internal">
        <lane id=":108325013_0_0" index="0" speed="13.89" length="6.21" shape="1483.00,781.10 1477.62,778.01"/>
    </edge>
    <edge id=":108325013_1" function="internal">
        <lane id=":108325013_1_0" index="0" speed="13.89" length="5.00" shape="1483.00,781.10 1481.92,780.26 1481.37,779.27 1481.35,778.14 1481.86,776.87"/>
    </edge>
    <edge id=":108325013_2" function="internal">
        <lane id=":108325013_2_0" index="0" speed="13.89" length="5.00" shape="1478.76,782.24 1479.27,780.97 1479.25,779.84 1478.70,778.85 1477.62,778.01"/>
    </edge>
    <edge id=":108325013_3" function="internal">
        <lane id=":108325013_3_0" index="0" speed="13.89" length="6.21" shape="1478.76,782.24 1481.86,776.87"/>
    </edge>
    <edge id=":108325059_0" function="internal">
        <lane id=":108325059_0_0" index="0" speed="18.06" length="5.00" shape="1382.35,723.15 1381.07,722.64 1379.94,722.66 1378.96,723.21 1378.12,724.29"/>
    </edge>
    <edge id=":108325059_1" function="internal">
        <lane id=":108325059_1_0" index="0" speed="13.89" length="6.22" shape="1382.35,723.15 1376.96,720.04"/>
    </edge>
    <edge id=":108325059_2" function="internal">
        <lane id=":108325059_2_0" index="0" speed="22.22" length="6.22" shape="1381.19,718.89 1378.12,724.29"/>
    </edge>
    <edge id=":108325059_3" function="internal">
        <lane id=":108325059_3_0" index="0" speed="18.06" length="5.01" shape="1381.19,718.89 1380.35,719.98 1379.37,720.53 1378.24,720.55 1376.96,720.04"/>
    </edge>
    <edge id=":108325088_0" function="internal">
        <lane id=":108325088_0_0" index="0" speed="13.89" length="6.22" shape="1287.31,668.12 1281.93,664.99"/>
    </edge>
    <edge id=":108325088_1" function="internal">
        <lane id=":108325088_1_0" index="0" speed="18.06" length="5.02" shape="1287.31,668.12 1286.22,667.27 1285.67,666.27 1285.66,665.14 1286.17,663.86"/>
    </edge>
    <edge id=":108325088_2" function="internal">
        <lane id=":108325088_2_0" index="0" speed="18.06" length="5.04" shape="1283.07,669.26 1283.58,667.98 1283.56,666.84 1283.01,665.84 1281.93,664.99"/>
    </edge>
    <edge id=":108325088_3" function="internal">
        <lane id=":108325088_3_0" index="0" speed="22.22" length="6.22" shape="1283.07,669.26 1286.17,663.86"/>
    </edge>
    <edge id=":108325127_0" function="internal">
        <lane id=":108325127_0_0" index="0" speed="13.89" length="5.01" shape="1195.05,614.09 1193.79,613.57 1192.65,613.59 1191.66,614.13 1190.81,615.21"/>
    </edge>
    <edge id=":108325127_1" function="internal">
        <lane id=":108325127_1_0" index="0" speed="13.89" length="6.22" shape="1195.05,614.09 1189.68,610.96"/>
    </edge>
    <edge id=":108325127_2" function="internal">
        <lane id=":108325127_2_0" index="0" speed="13.89" length="6.23" shape="1193.91,609.80 1190.81,615.21"/>
    </edge>
    <edge id=":108325127_3" function="internal">
        <lane id=":108325127_3_0" index="0" speed="13.89" length="5.01" shape="1193.91,609.80 1193.07,610.90 1192.09,611.45 1190.96,611.48 1189.68,610.96"/>
    </edge>
    <edge id=":108325338_0" function="internal">
        <lane id=":108325338_0_0" index="0" speed="13.89" length="6.17" shape="1107.96,563.78 1102.65,560.65"/>
    </edge>
    <edge id=":108325338_1" function="internal">
        <lane id=":108325338_1_0" index="0" speed="13.89" length="5.01" shape="1103.69,564.91 1104.23,563.64 1104.24,562.51 1103.71,561.52 1102.65,560.65"/>
    </edge>
    <edge id=":108325380_0" function="internal">
        <lane id=":108325380_0_0" index="0" speed="13.89" length="0.10" shape="1129.36,521.90 1129.36,521.90"/>
        <lane id=":108325380_0_1" index="1" speed="13.89" length="0.10" shape="1128.50,518.71 1128.50,518.71"/>
    </edge>
    <edge id=":108325443_0" function="internal">
        <lane id=":108325443_0_0" index="0" speed="13.89" length="5.03" shape="950.39,626.76 949.86,628.02 949.86,629.16 950.40,630.17 951.47,631.05"/>
    </edge>
    <edge id=":108325443_1" function="internal">
        <lane id=":108325443_1_0" index="0" speed="13.89" length="6.22" shape="950.39,626.76 947.22,632.12"/>
    </edge>
    <edge id=":108325510_0" function="internal">
        <lane id=":108325510_0_0" index="0" speed="13.89" length="5.04" shape="1029.94,679.38 1031.20,679.93 1032.34,679.93 1033.35,679.40 1034.23,678.33"/>
    </edge>
    <edge id=":108325510_1" function="internal">
        <lane id=":108325510_1_0" index="0" speed="13.89" length="6.25" shape="1029.94,679.38 1035.32,682.57"/>
    </edge>
    <edge id=":108325510_2" function="internal">
        <lane id=":108325510_2_0" index="0" speed="13.89" length="6.23" shape="1031.03,683.67 1034.23,678.33"/>
    </edge>
    <edge id=":108325510_3" function="internal">
        <lane id=":108325510_3_0" index="0" speed="13.89" length="5.04" shape="1031.03,683.67 1031.88,682.61 1032.88,682.07 1034.03,682.06 1035.32,682.57"/>
    </edge>
    <edge id=":108325556_0" function="internal">
        <lane id=":108325556_0_0" index="0" speed="13.89" length="5.20" shape="1123.79,729.53 1123.27,730.81 1123.28,731.99 1123.80,733.08 1124.85,734.06"/>
    </edge>
    <edge id=":108325556_1" function="internal">
        <lane id=":108325556_1_0" index="0" speed="13.89" length="6.30" shape="1123.79,729.53 1120.56,734.94"/>
    </edge>
    <edge id=":108325556_2" function="internal">
        <lane id=":108325556_2_0" index="0" speed="13.89" length="6.36" shape="1119.50,730.63 1124.85,734.06"/>
    </edge>
    <edge id=":108325556_3" function="internal">
        <lane id=":108325556_3_0" index="0" speed="13.89" length="5.09" shape="1119.50,730.63 1120.59,731.49 1121.13,732.49 1121.12,733.64 1120.56,734.94"/>
    </edge>
    <edge id=":108325572_0" function="internal">
        <lane id=":108325572_0_0" index="0" speed="18.06" length="5.07" shape="1213.53,785.06 1214.85,785.57 1216.00,785.56 1217.00,785.01 1217.85,783.93"/>
    </edge>
    <edge id=":108325572_1" function="internal">
        <lane id=":108325572_1_0" index="0" speed="13.89" length="6.25" shape="1213.53,785.06 1218.95,788.19"/>
    </edge>
    <edge id=":108325572_2" function="internal">
        <lane id=":108325572_2_0" index="0" speed="22.22" length="6.27" shape="1214.62,789.31 1217.85,783.93"/>
    </edge>
    <edge id=":108325572_3" function="internal">
        <lane id=":108325572_3_0" index="0" speed="18.06" length="5.07" shape="1214.62,789.31 1215.53,788.23 1216.55,787.68 1217.69,787.67 1218.95,788.19"/>
    </edge>
    <edge id=":108325601_0" function="internal">
        <lane id=":108325601_0_0" index="0" speed="18.06" length="5.03" shape="1311.91,840.23 1311.40,841.52 1311.41,842.66 1311.95,843.66 1313.02,844.51"/>
    </edge>
    <edge id=":108325601_1" function="internal">
        <lane id=":108325601_1_0" index="0" speed="22.22" length="6.26" shape="1311.91,840.23 1308.71,845.61"/>
    </edge>
    <edge id=":108325601_2" function="internal">
        <lane id=":108325601_2_0" index="0" speed="13.89" length="6.22" shape="1307.67,841.34 1313.02,844.51"/>
    </edge>
    <edge id=":108325601_3" function="internal">
        <lane id=":108325601_3_0" index="0" speed="18.06" length="5.03" shape="1307.67,841.34 1308.74,842.22 1309.27,843.22 1309.26,844.35 1308.71,845.61"/>
    </edge>
    <edge id=":108325654_0" function="internal">
        <lane id=":108325654_0_0" index="0" speed="13.89" length="5.06" shape="1407.52,899.78 1408.82,900.31 1409.97,900.31 1410.96,899.76 1411.81,898.68"/>
    </edge>
    <edge id=":108325654_1" function="internal">
        <lane id=":108325654_1_0" index="0" speed="13.89" length="6.29" shape="1407.52,899.78 1412.97,902.91"/>
    </edge>
    <edge id=":108325654_2" function="internal">
        <lane id=":108325654_2_0" index="0" speed="13.89" length="6.28" shape="1408.54,904.05 1411.81,898.68"/>
    </edge>
    <edge id=":108325654_3" function="internal">
        <lane id=":108325654_3_0" index="0" speed="13.89" length="5.15" shape="1408.54,904.05 1409.46,902.98 1410.51,902.43 1411.68,902.41 1412.97,902.91"/>
    </edge>
    <edge id=":108325895_0" function="internal">
        <lane id=":108325895_0_0" index="0" speed="13.89" length="7.04" shape="742.23,615.28 737.05,620.04"/>
    </edge>
    <edge id=":108325895_1" function="internal">
        <lane id=":108325895_1_0" index="0" speed="13.89" length="7.36" shape="742.23,615.28 734.89,616.57"/>
        <lane id=":108325895_1_1" index="1" speed="13.89" length="7.36" shape="741.48,612.06 734.32,613.32"/>
    </edge>
    <edge id=":108325960_0" function="internal">
        <lane id=":108325960_0_0" index="0" speed="13.89" length="9.35" shape="734.46,633.92 735.28,636.34 736.43,638.39 737.91,640.05 739.72,641.34"/>
    </edge>
    <edge id=":108325960_1" function="internal">
        <lane id=":108325960_1_0" index="0" speed="13.89" length="11.79" shape="734.46,633.92 735.12,637.42 735.23,640.50 734.81,643.17 733.84,645.41"/>
    </edge>
    <edge id=":108325960_2" function="internal">
        <lane id=":108325960_2_0" index="0" speed="13.89" length="9.93" shape="731.17,636.38 739.72,641.34"/>
        <lane id=":108325960_2_1" index="1" speed="13.89" length="9.93" shape="729.49,639.22 738.11,644.22"/>
    </edge>
    <edge id=":108325960_4" function="internal">
        <lane id=":108325960_4_0" index="0" speed="13.89" length="8.32" shape="729.49,639.22 732.00,640.93 733.56,642.53 734.17,644.03 733.84,645.41"/>
    </edge>
    <edge id=":108326138_0" function="internal">
        <lane id=":108326138_0_0" index="0" speed="13.89" length="6.10" shape="723.16,668.66 718.02,665.45"/>
        <lane id=":108326138_0_1" index="1" speed="13.89" length="6.10" shape="724.95,665.89 719.73,662.62"/>
    </edge>
    <edge id=":108326138_2" function="internal">
        <lane id=":108326138_2_0" index="0" speed="13.89" length="5.00" shape="723.99,661.58 723.12,662.64 722.12,663.16 720.99,663.16 719.73,662.62"/>
    </edge>
    <edge id=":108326335_0" function="internal">
        <lane id=":108326335_0_0" index="0" speed="13.89" length="6.82" shape="713.70,601.30 720.13,600.85"/>
        <lane id=":108326335_0_1" index="1" speed="13.89" length="6.82" shape="713.74,604.60 720.91,604.05"/>
    </edge>
    <edge id=":108326335_2" function="internal">
        <lane id=":108326335_2_0" index="0" speed="13.89" length="6.81" shape="716.27,608.30 716.55,606.87 717.41,605.69 718.87,604.75 720.91,604.05"/>
    </edge>
    <edge id=":108333479_0" function="internal">
        <lane id=":108333479_0_0" index="0" speed="27.78" length="6.40" shape="1443.19,402.60 1437.75,399.28"/>
        <lane id=":108333479_0_1" index="1" speed="27.78" length="6.40" shape="1444.93,399.80 1439.45,396.45"/>
    </edge>
    <edge id=":108333479_2" function="internal">
        <lane id=":108333479_2_0" index="0" speed="20.83" length="5.23" shape="1444.93,399.80 1443.80,398.87 1443.22,397.81 1443.18,396.64 1443.69,395.35"/>
    </edge>
    <edge id=":108333479_3" function="internal">
        <lane id=":108333479_3_0" index="0" speed="20.83" length="5.17" shape="1438.94,403.68 1439.45,402.37 1439.42,401.20 1438.85,400.17 1437.75,399.28"/>
    </edge>
    <edge id=":108333479_4" function="internal">
        <lane id=":108333479_4_0" index="0" speed="13.89" length="9.60" shape="1438.94,403.68 1443.69,395.35"/>
    </edge>
    <edge id=":108333489_0" function="internal">
        <lane id=":108333489_0_0" index="0" speed="20.83" length="5.03" shape="1350.69,347.11 1349.42,346.58 1348.29,346.59 1347.30,347.14 1346.45,348.24"/>
    </edge>
    <edge id=":108333489_1" function="internal">
        <lane id=":108333489_1_0" index="0" speed="27.78" length="6.41" shape="1350.69,347.11 1345.20,343.76"/>
        <lane id=":108333489_1_1" index="1" speed="27.78" length="6.41" shape="1352.39,344.28 1346.94,340.96"/>
    </edge>
    <edge id=":108333489_3" function="internal">
        <lane id=":108333489_3_0" index="0" speed="13.89" length="9.61" shape="1351.19,339.88 1346.45,348.24"/>
    </edge>
    <edge id=":108333489_4" function="internal">
        <lane id=":108333489_4_0" index="0" speed="20.83" length="5.05" shape="1351.19,339.88 1350.34,340.98 1349.35,341.52 1348.21,341.52 1346.94,340.96"/>
    </edge>
    <edge id=":108333497_0" function="internal">
        <lane id=":108333497_0_0" index="0" speed="13.89" length="7.86" shape="1145.27,495.05 1146.76,494.42 1148.19,493.34 1149.56,491.81 1150.86,489.81"/>
    </edge>
    <edge id=":108333497_1" function="internal">
        <lane id=":108333497_1_0" index="0" speed="13.89" length="8.26" shape="1145.27,495.05 1153.33,493.12"/>
        <lane id=":108333497_1_1" index="1" speed="13.89" length="8.26" shape="1146.09,498.24 1154.09,496.33"/>
    </edge>
    <edge id=":108333511_0" function="internal">
        <lane id=":108333511_0_0" index="0" speed="27.78" length="7.01" shape="1266.02,295.96 1259.97,292.88"/>
        <lane id=":108333511_0_1" index="1" speed="27.78" length="7.01" shape="1267.72,293.13 1261.28,289.85"/>
    </edge>
    <edge id=":108333511_2" function="internal">
        <lane id=":108333511_2_0" index="0" speed="20.83" length="5.14" shape="1260.04,300.07 1260.57,298.74 1260.52,297.60 1259.88,296.66 1258.66,295.91"/>
    </edge>
    <edge id=":109319097_0" function="internal">
        <lane id=":109319097_0_0" index="0" speed="20.83" length="3.43" shape="1949.47,1172.15 1948.22,1172.91 1947.36,1173.51 1946.88,1173.94 1946.79,1174.20"/>
    </edge>
    <edge id=":109319097_1" function="internal">
        <lane id=":109319097_1_0" index="0" speed="27.78" length="5.48" shape="1943.67,1170.03 1943.92,1175.83"/>
        <lane id=":109319097_1_1" index="1" speed="27.78" length="5.48" shape="1941.31,1172.33 1941.05,1177.47"/>
    </edge>
    <edge id=":109319191_0" function="internal">
        <lane id=":109319191_0_0" index="0" speed="25.00" length="5.38" shape="1959.96,1205.63 1960.76,1206.82 1961.77,1207.55 1962.99,1207.81 1964.43,1207.61"/>
    </edge>
    <edge id=":109319191_1" function="internal">
        <lane id=":109319191_1_0" index="0" speed="27.78" length="6.54" shape="1959.96,1205.63 1962.54,1211.81"/>
        <lane id=":109319191_1_1" index="1" speed="27.78" length="6.54" shape="1956.99,1207.06 1959.45,1212.95"/>
    </edge>
    <edge id=":109319191_3" function="internal">
        <lane id=":109319191_3_0" index="0" speed="22.22" length="9.88" shape="1955.33,1211.46 1964.43,1207.61"/>
    </edge>
    <edge id=":109319191_4" function="internal">
        <lane id=":109319191_4_0" index="0" speed="25.00" length="5.21" shape="1955.33,1211.46 1956.69,1210.92 1957.83,1210.98 1958.75,1211.66 1959.45,1212.95"/>
    </edge>
    <edge id=":110575287_0" function="internal">
        <lane id=":110575287_0_0" index="0" speed="27.78" length="5.23" shape="2129.14,899.93 2129.77,899.61 2130.14,899.16 2130.26,898.59 2130.12,897.90"/>
        <lane id=":110575287_0_1" index="1" speed="27.78" length="5.23" shape="2130.24,903.04 2132.16,902.04 2133.29,900.67 2133.65,898.93 2133.23,896.81"/>
    </edge>
    <edge id=":110575964_0" function="internal">
        <lane id=":110575964_0_0" index="0" speed="27.78" length="0.82" shape="1982.09,474.70 1982.08,475.11"/>
        <lane id=":110575964_0_1" index="1" speed="27.78" length="0.82" shape="1978.83,474.18 1978.80,475.43"/>
    </edge>
    <edge id=":110575973_0" function="internal">
        <lane id=":110575973_0_0" index="0" speed="27.78" length="1.52" shape="1990.32,484.14 1990.29,485.67"/>
        <lane id=":110575973_0_1" index="1" speed="27.78" length="1.52" shape="1989.67,487.38 1989.41,488.86"/>
    </edge>
    <edge id=":110575973_2" function="internal">
        <lane id=":110575973_2_0" index="0" speed="27.78" length="4.07" shape="1984.08,491.96 1988.71,492.09"/>
        <lane id=":110575973_2_1" index="1" speed="27.78" length="4.07" shape="1984.55,495.22 1988.06,495.32"/>
    </edge>
    <edge id=":110575977_0" function="internal">
        <lane id=":110575977_0_0" index="0" speed="27.78" length="0.30" shape="1962.36,481.22 1962.36,480.77"/>
        <lane id=":110575977_0_1" index="1" speed="27.78" length="0.30" shape="1965.66,481.07 1965.66,480.92"/>
    </edge>
    <edge id=":111132214_0" function="internal">
        <lane id=":111132214_0_0" index="0" speed="27.78" length="2.20" shape="1639.94,372.03 1643.55,372.53"/>
        <lane id=":111132214_0_1" index="1" speed="27.78" length="2.20" shape="1642.41,374.82 1641.91,375.39"/>
    </edge>
    <edge id=":111132217_0" function="internal">
        <lane id=":111132217_0_0" index="0" speed="27.78" length="11.62" shape="1673.75,385.64 1671.75,386.38 1670.98,387.30 1671.44,388.41 1673.14,389.70"/>
        <lane id=":111132217_0_1" index="1" speed="27.78" length="11.62" shape="1672.97,382.44 1667.99,384.27 1666.08,386.56 1667.22,389.31 1671.44,392.53"/>
    </edge>
    <edge id=":111132217_2" function="internal">
        <lane id=":111132217_2_0" index="0" speed="27.78" length="16.03" shape="1672.97,382.44 1668.53,384.08 1665.68,385.90 1662.80,387.47 1658.25,388.38"/>
    </edge>
    <edge id=":111132217_3" function="internal">
        <lane id=":111132217_3_0" index="0" speed="27.78" length="21.51" shape="1654.54,378.82 1659.90,381.90 1663.88,384.20 1667.84,386.53 1673.14,389.70"/>
        <lane id=":111132217_3_1" index="1" speed="27.78" length="21.51" shape="1652.90,381.69 1658.25,384.75 1662.21,387.04 1666.15,389.36 1671.44,392.53"/>
    </edge>
    <edge id=":111132217_5" function="internal">
        <lane id=":111132217_5_0" index="0" speed="27.78" length="6.27" shape="1652.90,381.69 1655.24,383.17 1656.42,384.26 1656.44,384.97 1655.29,385.29"/>
    </edge>
    <edge id=":112019943_0" function="internal">
        <lane id=":112019943_0_0" index="0" speed="27.78" length="1.56" shape="1963.99,581.79 1963.53,582.40"/>
        <lane id=":112019943_0_1" index="1" speed="27.78" length="1.56" shape="1961.91,579.23 1960.49,581.10"/>
    </edge>
    <edge id=":112019955_0" function="internal">
        <lane id=":112019955_0_0" index="0" speed="27.78" length="7.71" shape="1783.93,1009.32 1783.96,1010.66 1784.45,1011.63 1785.40,1012.22 1786.82,1012.44"/>
        <lane id=":112019955_0_1" index="1" speed="27.78" length="7.71" shape="1780.60,1009.29 1780.68,1012.07 1781.73,1014.07 1783.76,1015.29 1786.76,1015.74"/>
    </edge>
    <edge id=":112019955_2" function="internal">
        <lane id=":112019955_2_0" index="0" speed="27.78" length="10.86" shape="1776.26,1017.76 1779.32,1018.40 1781.43,1018.77 1783.57,1018.95 1786.70,1019.04"/>
        <lane id=":112019955_2_1" index="1" speed="27.78" length="10.86" shape="1775.57,1020.98 1778.82,1021.67 1781.06,1022.06 1783.32,1022.25 1786.64,1022.34"/>
    </edge>
    <edge id=":112814801_0" function="internal">
        <lane id=":112814801_0_0" index="0" speed="13.89" length="0.24" shape="823.01,446.52 822.82,446.67"/>
    </edge>
    <edge id=":112814925_0" function="internal">
        <lane id=":112814925_0_0" index="0" speed="13.89" length="11.59" shape="783.09,475.60 779.36,476.02 776.32,476.77 773.99,477.84 772.36,479.23"/>
    </edge>
    <edge id=":112814925_1" function="internal">
        <lane id=":112814925_1_0" index="0" speed="13.89" length="12.15" shape="783.09,475.60 779.78,475.83 777.00,475.94 774.24,475.77 771.01,475.14"/>
    </edge>
    <edge id=":112814925_2" function="internal">
        <lane id=":112814925_2_0" index="0" speed="13.89" length="12.14" shape="781.97,471.96 779.10,473.62 776.74,475.10 774.60,476.82 772.36,479.23"/>
    </edge>
    <edge id=":112814925_3" function="internal">
        <lane id=":112814925_3_0" index="0" speed="13.89" length="11.84" shape="781.97,471.96 779.12,473.70 776.69,474.96 774.16,475.51 771.01,475.14"/>
    </edge>
    <edge id=":112815008_0" function="internal">
        <lane id=":112815008_0_0" index="0" speed="13.89" length="5.14" shape="817.92,473.32 816.52,473.64 815.62,474.33 815.21,475.40 815.29,476.82"/>
    </edge>
    <edge id=":112815008_1" function="internal">
        <lane id=":112815008_1_0" index="0" speed="13.89" length="6.63" shape="817.92,473.32 811.31,473.81"/>
    </edge>
    <edge id=":112815008_2" function="internal">
        <lane id=":112815008_2_0" index="0" speed="13.89" length="6.63" shape="813.97,470.33 815.29,476.82"/>
    </edge>
    <edge id=":112815008_3" function="internal">
        <lane id=":112815008_3_0" index="0" speed="13.89" length="5.18" shape="813.97,470.33 814.05,471.77 813.64,472.83 812.72,473.51 811.31,473.81"/>
    </edge>
    <edge id=":112815039_0" function="internal">
        <lane id=":112815039_0_0" index="0" speed="13.89" length="6.73" shape="632.05,368.79 635.32,362.89"/>
    </edge>
    <edge id=":112815039_1" function="internal">
        <lane id=":112815039_1_0" index="0" speed="13.89" length="3.82" shape="632.05,368.79 632.69,367.91 633.40,367.26 634.19,366.84 635.06,366.65"/>
    </edge>
    <edge id=":112815171_0" function="internal">
        <lane id=":112815171_0_0" index="0" speed="13.89" length="9.00" shape="999.39,345.66 1006.87,340.66"/>
    </edge>
    <edge id=":112815171_1" function="internal">
        <lane id=":112815171_1_0" index="0" speed="13.89" length="9.12" shape="1002.10,348.43 1006.87,340.66"/>
    </edge>
    <edge id=":112815234_0" function="internal">
        <lane id=":112815234_0_0" index="0" speed="13.89" length="6.77" shape="667.34,448.33 660.82,446.52"/>
    </edge>
    <edge id=":112815234_1" function="internal">
        <lane id=":112815234_1_0" index="0" speed="13.89" length="5.67" shape="665.47,444.37 664.65,445.67 663.60,446.46 662.32,446.74 660.82,446.52"/>
    </edge>
    <edge id=":112815234_2" function="internal">
        <lane id=":112815234_2_0" index="0" speed="13.89" length="5.20" shape="662.62,450.52 663.05,449.12 662.89,447.99 662.15,447.13 660.82,446.52"/>
    </edge>
    <edge id=":112815304_0" function="internal">